 &time_control
 run_days                            = 0,
 run_hours                           = 240,
 run_minutes                         = 0,
 run_seconds                         = 0,
 start_year                          = 2014,
 start_month                         = 02,  
 start_day                           = 10,  
 start_hour                          = 00,  
 start_minute                        = 00,  
 start_second                        = 00,  
 end_year                            = 2014,
 end_month                           = 02,  
 end_day                             = 20,  
 end_hour                            = 00,  
 end_minute                          = 00,  
 end_second                          = 00,  
 interval_seconds                    = 10800
 input_from_file                     = .true.,
 history_interval                    = 180, 
 frames_per_outfile                  = 1000,
 restart                             = .false.,
 restart_interval                    = 5000,
 io_form_history                     = 2
 io_form_restart                     = 2
 io_form_input                       = 2
 io_form_boundary                    = 2
 debug_level                         = 0
 /

 &domains
 time_step                           = 12,
 time_step_fract_num                 = 0,
 time_step_fract_den                 = 1,
 max_dom                             = 1,
 e_we                                = 321, 
 e_sn                                = 257,  
 e_vert                              = 51,  
 eta_levels                          =    1.0000000,   0.9946468,   0.9889215,   0.9828001,   0.9762576,   0.9692677,   0.9618027,   0.9538340,   0.9453315,   0.9362642,   0.9265997,   0.9163048,   0.9053455,   0.8936867,   0.8812929,   0.8681283,   0.8541568,   0.8393426,   0.8236505,   0.8070461,   0.7894967,   0.7709715,   0.7514425,   0.7308851,   0.7092789,   0.6866087,   0.6628655,   0.6380474,   0.6121613,   0.5852233,   0.5572610,   0.5283139,   0.4984354,   0.4676941,   0.4361746,   0.4039792,   0.3712285,   0.3380622,   0.3046394,   0.2711385,   0.2377561,   0.2047062,   0.1723616,   0.1428810,   0.1160447,   0.0916478,   0.0694992,   0.0494207,   0.0312464,   0.0148220,   0.0000000
 p_top_requested                     = 10000,
 num_metgrid_levels                  = 30,
 num_metgrid_soil_levels             = 4,
 dx                                  = 4000.
 dy                                  = 4000.
 grid_id                             = 1,
 parent_id                           = 1,
 i_parent_start                      = 1,
 j_parent_start                      = 1,
 parent_grid_ratio                   = 1,
 parent_time_step_ratio              = 1,
 feedback                            = 0, !bloss(2015-12-09): turn off feedback to try to eliminate noise at edge of nest
 smooth_option                       = 0,
 sfcp_to_sfcp			     = .true., 
 numtiles = 1,
 nproc_x = -1,
 nproc_y = -1,
 /

 &physics
 mp_physics                          = 28, 
 ra_lw_physics                       = 4,  
 ra_sw_physics                       = 4,  
 radt                                = 10, 
 sf_sfclay_physics                   = 2,  
 sf_surface_physics                  = 2,  
 bl_pbl_physics                      = 0,  
 bldt                                = 0,  
 cu_physics                          = 0,  
 cudt                                = 0,  
 isfflx                              = 1,
 ifsnow                              = 1,
 icloud                              = 1,
 surface_input_source                = 1,
 num_soil_layers                     = 4,
 num_land_cat			     = 20,
 sf_urban_physics                    = 0,
 cam_abs_freq_s			     = 21600,
 levsiz				     = 59,
 paerlev			     = 29,
 cam_abs_dim1			     = 4,
 cam_abs_dim2			     = 30,
 /

 &fdda
 /

 &dynamics
 w_damping                           = 0,
 diff_opt                            = 1,
 km_opt                              = 4,
 diff_6th_opt                        = 0,  
 diff_6th_factor                     = 0.12,
 base_temp                           = 290.
 damp_opt                            = 0,
 zdamp                               = 5000., 
 dampcoef                            = 0.2,   
 khdif                               = 0,     
 kvdif                               = 0,     
 non_hydrostatic                     = .true.,
 moist_adv_opt                       = 1,     
 scalar_adv_opt                      = 1,     
 /

 &bdy_control
 spec_bdy_width                      = 5,
 spec_zone                           = 1,
 relax_zone                          = 4,
 specified                           = .true., 
 nested                              = .false.,
 have_bcs_moist                      = .true.
 have_bcs_scalar                     = .true.
 /

 &grib2
 /

 &namelist_quilt
 nio_tasks_per_group = 0,
 nio_groups = 1,
 /
