   1000.000     280.15       5.94
      0.000     280.15     5.9372      15.00       0.00
    500.000     281.88     5.0632      15.00       0.00
   1000.000     283.63     4.2894      15.00       0.00
   1500.000     285.38     3.6079      15.00       0.00
   2000.000     287.15     3.0109      15.00       0.00
   2500.000     288.93     2.4902      15.00       0.00
   3000.000     290.71     2.0371      15.00       0.00
   3500.000     292.51     1.6422      15.00       0.00
   4000.000     294.32     1.2955      15.00       0.00
   4500.000     296.14     0.9870      15.00       0.00
   5000.000     297.98     0.7099      15.00       0.00
   5500.000     299.82     0.4662      15.00       0.00
   6000.000     301.68     0.2706      15.00       0.00
   6500.000     303.54     0.1376      15.00       0.00
   7000.000     305.42     0.0634      15.00       0.00
   7500.000     307.31     0.0282      15.00       0.00
   8000.000     309.21     0.0130      15.00       0.00
   8499.999     311.13     0.0065      15.00       0.00
   8999.999     313.05     0.0036      15.00       0.00
   9500.000     314.99     0.0022      15.00       0.00
   9999.999     316.94     0.0020      15.00       0.00
  10499.999     318.90     0.0020      15.62       0.00
  10999.999     320.87     0.0020      16.25       0.00
  11500.000     322.86     0.0020      16.88       0.00
  11999.999     324.86     0.0020      17.50       0.00
  12499.999     326.87     0.0020      18.12       0.00
  12999.999     328.89     0.0020      18.75       0.00
  13500.000     330.93     0.0020      19.38       0.00
  13999.999     332.97     0.0020      20.00       0.00
  14499.999     335.03     0.0020      20.62       0.00
  14999.999     337.11     0.0020      21.25       0.00
  15500.000     339.19     0.0020      21.88       0.00
  15999.999     341.29     0.0020      22.50       0.00
  16499.998     343.41     0.0020      23.12       0.00
  16999.998     345.53     0.0020      23.75       0.00
  17500.000     347.67     0.0020      24.38       0.00
  17999.998     349.82     0.0020      25.00       0.00
  18499.998     351.99     0.0020      25.62       0.00
  19000.000     354.16     0.0020      26.25       0.00
  19500.000     356.35     0.0020      26.88       0.00
  19999.998     358.56     0.0020      27.50       0.00
  20499.998     360.78     0.0020      28.12       0.00
  20999.998     363.01     0.0020      28.75       0.00
  21500.000     365.26     0.0020      29.38       0.00
  21999.998     367.52     0.0020      30.00       0.00
  22499.998     369.79     0.0020      30.62       0.00
  23000.000     372.08     0.0020      31.25       0.00
  23500.000     374.38     0.0020      31.88       0.00
  23999.998     376.70     0.0020      32.50       0.00
  24499.998     379.03     0.0020      33.12       0.00
  24999.998     381.38     0.0020      33.75       0.00
  25499.998     383.74     0.0020      34.37       0.00
  25999.998     386.11     0.0020      35.00       0.00
  26499.998     388.50     0.0020      35.62       0.00
  27000.000     390.91     0.0020      36.25       0.00
  27499.998     393.32     0.0020      36.87       0.00
  27999.998     395.76     0.0020      37.50       0.00
  28499.998     398.21     0.0020      38.12       0.00
  28999.998     400.67     0.0020      38.75       0.00
  29499.998     403.15     0.0020      39.37       0.00
  29999.998     405.65     0.0020      40.00       0.00
